data_1
_audit_creation_method   'Generated by vasp2cif'
_cell_length_a    6.07245452906
_cell_length_b    6.07245452913
_cell_length_c    12.9091830724
_cell_angle_alpha    94.9300455861
_cell_angle_beta    94.930045586
_cell_angle_gamma    120.024753244

_symmetry_space_group_name_H-M    'P 1'
loop_
_atom_site_label
_atom_site_type_symbol
_atom_site_fract_x
_atom_site_fract_y
_atom_site_fract_z
_atom_site_occupancy
Cu1   Cu   0.030997157674712   0.354689870578894   0.569120669350319   1.0
Cu2   Cu   0.854689853579015   0.530997161674747   0.069120726350398   1.0
In3   In   0.755780942809170   0.749742333849607   0.753642817538597   1.0
In4   In   0.249742300849792   0.255780937809399   0.253642837538767   1.0
P5   P   0.391336684684573   0.050561408584530   0.647956543671373   1.0
P6   P   0.550561408584567   0.891336715684677   0.147956563671282   1.0
P7   P   0.441805827539544   0.104177091559494   0.824315895930794   1.0
P8   P   0.604177107559459   0.941805813539671   0.324315897930817   1.0
S9   S   0.035231283647893   0.729093524073387   0.601319984698976   1.0
S10   S   0.229093624073403   0.535231319647996   0.101319994699041   1.0
S11   S   0.500831016238367   0.181481526497190   0.104434112555714   1.0
S12   S   0.681481467497190   0.000830938238431   0.604434101555909   1.0
S13   S   0.411913571860160   0.372730407080126   0.599445854932641   1.0
S14   S   0.872730372080211   0.911913531859922   0.099445864932536   1.0
S15   S   0.791644792722043   0.433485864271251   0.872535259265030   1.0
S16   S   0.933485767271560   0.291644763722222   0.372535297264964   1.0
S17   S   0.282771208990443   0.929097533703854   0.362060372118362   1.0
S18   S   0.429097532704015   0.782771183990315   0.862060407118462   1.0
S19   S   0.645984354046384   0.649381352105021   0.364431412919454   1.0
S20   S   0.149381334105061   0.145984349046387   0.864431411919536   1.0


